# diagnostics Package
# Energy terms...
 &diagnostics_list 
frequency(1) = -1860,
timephase(1)=0.,
fields(1,1)='SDIAG1',
filename(1)='Ez',
frequency(2) = 1860,
fields(1,2)='SDIAG3',
filename(2)='vE',
frequency(3) = 1860,
fields(1,3)='SDIAG6',
filename(3)='vPbc',
frequency(4) = 1860,
fields(1,4)='SDIAG7',
filename(4)='vPbt',
/

&diag_statis_parms
/
