# Packages
 &PACKAGES
 useOBCS=.TRUE.,
 useKL10=.TRUE.,
 useDIAGNOSTICS=.FALSE.,
 useMNC=.FALSE.,
 /
